version 2
1
9
.tran 1u 1m{return}.probe vd(R1){return}{return}{return}.kicad adjustpaths{return}.save all{return}.probe alli
2
1
V(/Vin)
 
1
vd_R1
 
