version 2
1
9
.tran 1u 1m{return}.probe vd(R1){return}{return}.kicad adjustpaths{return}.save all{return}.probe alli
3
2
I(L1)
 
2
I(R1)
 
1
vd_R1
 
