version 2
1
9
.tran 10m 13{return}.probe vd(R2){return}{return}{return}.kicad adjustpaths{return}.save all{return}.probe alli
3
2
I(R3)
 
1
V(/VV1)
 
1
vd_R2
 
