version 2
1
9
.tran 1m 5{return}{return}{return}.kicad adjustpaths{return}.save all{return}.probe alli
2
2
I(R3)
 
1
V(/VV1)
 
